  
       XFOIL         Version 6.99
  
 Calculated polar for: CLARK Y AIRFOIL                                 
  
 1 1 Reynolds number fixed          Mach number fixed         
  
 xtrf =   1.000 (top)        1.000 (bottom)  
 Mach =   0.000     Re =     0.020 e 6     Ncrit =   9.000
  
   alpha    CL        CD       CDp       CM     Top_Xtr  Bot_Xtr
  ------ -------- --------- --------- -------- -------- --------
 -32.050  -0.5626   0.33007   0.32037   0.0534   1.0000   0.0980
 -30.950  -0.9550   0.37088   0.35869   0.1194   1.0000   0.0955
 -29.950  -0.5332   0.30458   0.29457   0.0415   1.0000   0.1087
 -28.500  -0.8846   0.34632   0.33393   0.0952   1.0000   0.1092
 -27.900  -0.5068   0.28628   0.27603   0.0293   1.0000   0.1217
 -27.500  -0.4964   0.27843   0.26812   0.0275   1.0000   0.1261
 -27.000  -0.4874   0.27278   0.26240   0.0249   1.0000   0.1323
 -26.500  -0.4815   0.26987   0.25944   0.0220   1.0000   0.1377
 -26.450  -0.4813   0.26986   0.25944   0.0217   1.0000   0.1381
 -26.300  -0.8177   0.32534   0.31285   0.0741   1.0000   0.1250
 -26.200  -0.4807   0.27060   0.26016   0.0200   1.0000   0.1393
 -26.100  -0.8107   0.32208   0.30956   0.0726   1.0000   0.1275
 -25.650  -0.7961   0.31751   0.30498   0.0687   1.0000   0.1335
 -25.500  -0.7917   0.31685   0.30431   0.0672   1.0000   0.1354
 -25.000  -0.7807   0.32129   0.30878   0.0613   1.0000   0.1393
 -24.950  -0.7799   0.32230   0.30980   0.0606   1.0000   0.1395
 -24.700  -0.4483   0.24968   0.23909   0.0127   1.0000   0.1562
 -24.350  -0.7551   0.30456   0.29200   0.0570   1.0000   0.1449
 -24.000  -0.4451   0.24982   0.23925   0.0086   1.0000   0.1603
 -23.850  -0.4354   0.24245   0.23184   0.0081   1.0000   0.1624
 -23.700  -0.4300   0.23909   0.22846   0.0076   1.0000   0.1647
 -23.300  -0.4205   0.23407   0.22342   0.0058   1.0000   0.1712
 -23.200  -0.4188   0.23323   0.22257   0.0054   1.0000   0.1729
 -23.000  -0.4163   0.23223   0.22155   0.0043   1.0000   0.1761
 -22.950  -0.4159   0.23215   0.22148   0.0040   1.0000   0.1768
 -22.700  -0.4161   0.23323   0.22255   0.0026   1.0000   0.1791
 -22.550  -0.6952   0.28405   0.27152   0.0424   1.0000   0.1654
 -21.950  -0.3942   0.22061   0.20985  -0.0004   1.0000   0.1918
 -21.850  -0.3926   0.21997   0.20920  -0.0009   1.0000   0.1940
 -21.500  -0.3920   0.22069   0.20992  -0.0027   1.0000   0.1989
 -21.450  -0.3924   0.22114   0.21037  -0.0029   1.0000   0.1992
 -21.400  -0.6649   0.27955   0.26714   0.0325   1.0000   0.1807
 -21.050  -0.6439   0.26591   0.25334   0.0314   1.0000   0.1888
 -21.000  -0.6421   0.26527   0.25270   0.0311   1.0000   0.1901
 -20.950  -0.3747   0.21094   0.20018  -0.0048   1.0000   0.2072
 -20.500  -0.6329   0.26671   0.25420   0.0267   1.0000   0.1991
 -20.450  -0.6330   0.26771   0.25521   0.0262   1.0000   0.1994
 -20.150  -0.6164   0.25723   0.24474   0.0248   1.0000   0.2041
 -20.050  -0.3651   0.20712   0.19639  -0.0087   1.0000   0.2210
 -19.850  -0.6037   0.25196   0.23946   0.0233   1.0000   0.2115
 -19.650  -0.5988   0.25111   0.23863   0.0218   1.0000   0.2159
 -19.500  -0.3454   0.19730   0.18653  -0.0105   1.0000   0.2344
 -19.000  -0.5769   0.24242   0.23000   0.0177   1.0000   0.2260
 -18.950  -0.3389   0.19414   0.18341  -0.0127   1.0000   0.2425
 -18.900  -0.5725   0.24062   0.22820   0.0172   1.0000   0.2287
 -18.800  -0.5690   0.23941   0.22698   0.0166   1.0000   0.2313
 -18.650  -0.5654   0.23862   0.22621   0.0156   1.0000   0.2352
 -18.350  -0.5657   0.24171   0.22937   0.0132   1.0000   0.2395
 -18.250  -0.3282   0.18980   0.17906  -0.0149   1.0000   0.2592
 -18.000  -0.5434   0.22987   0.21752   0.0119   1.0000   0.2477
 -17.500  -0.5381   0.23029   0.21801   0.0088   1.0000   0.2594
 -17.300  -0.5247   0.22310   0.21084   0.0080   1.0000   0.2635
 -17.150  -0.5158   0.21936   0.20708   0.0075   1.0000   0.2687
 -17.050  -0.5126   0.21822   0.20594   0.0071   1.0000   0.2721
 -16.950  -0.5112   0.21796   0.20570   0.0066   1.0000   0.2754
 -16.700  -0.5162   0.22138   0.20919   0.0050   1.0000   0.2798
 -16.250  -0.4938   0.21138   0.19910   0.0035   1.0000   0.2980
 -16.000  -0.2741   0.16493   0.15421  -0.0205   1.0000   0.3265
 -15.700  -0.4787   0.20517   0.19296   0.0016   1.0000   0.3186
 -15.500  -0.4669   0.19977   0.18757   0.0009   1.0000   0.3251
 -15.000  -0.4551   0.19466   0.18252  -0.0007   1.0000   0.3430
 -14.900  -0.4463   0.19142   0.17927  -0.0010   1.0000   0.3481
 -14.750  -0.4436   0.19036   0.17821  -0.0013   1.0000   0.3554
 -14.700  -0.4449   0.19077   0.17864  -0.0014   1.0000   0.3572
 -14.650  -0.4471   0.19146   0.17935  -0.0015   1.0000   0.3585
 -14.450  -0.4345   0.18619   0.17409  -0.0022   1.0000   0.3657
 -14.000  -0.4212   0.18045   0.16840  -0.0032   1.0000   0.3855
 -13.500  -0.4057   0.17420   0.16218  -0.0037   1.0000   0.4154
 -13.000  -0.3883   0.16696   0.15501  -0.0042   1.0000   0.4469
 -12.500  -0.3829   0.16340   0.15152  -0.0036   1.0000   0.4792
 -12.400  -0.3697   0.15919   0.14730  -0.0044   1.0000   0.4856
 -12.300  -0.3652   0.15776   0.14587  -0.0044   1.0000   0.4941
 -12.250  -0.3681   0.15828   0.14641  -0.0040   1.0000   0.4974
 -12.150  -0.3690   0.15776   0.14593  -0.0038   1.0000   0.5016
 -12.100  -0.3588   0.15499   0.14305  -0.0045   1.0000   0.5063
 -12.000  -0.3558   0.15392   0.14199  -0.0043   1.0000   0.5151
 -11.500  -0.3360   0.14666   0.13476  -0.0043   1.0000   0.5535
 -11.350  -0.3338   0.14519   0.13332  -0.0040   1.0000   0.5640
 -11.000  -0.3208   0.14073   0.12888  -0.0035   1.0000   0.5975
 -10.900  -0.3127   0.13828   0.12644  -0.0040   1.0000   0.6056
 -10.500  -0.2917   0.13202   0.12018  -0.0040   1.0000   0.6478
 -10.250  -0.2848   0.12963   0.11781  -0.0031   1.0000   0.6782
 -10.000  -0.2623   0.12406   0.11223  -0.0044   1.0000   0.7096
  -9.700  -0.2462   0.12011   0.10820  -0.0041   1.0000   0.7582
  -9.650  -0.2350   0.11778   0.10586  -0.0054   1.0000   0.7682
  -9.500  -0.2305   0.11687   0.10494  -0.0045   1.0000   0.7999
  -9.400  -0.2039   0.11192   0.09994  -0.0079   1.0000   0.8300
  -9.200  -0.1714   0.10632   0.09426  -0.0121   1.0000   0.8876
  -9.150  -0.1670   0.10572   0.09364  -0.0126   1.0000   0.9022
  -9.000  -0.1307   0.09969   0.08751  -0.0193   1.0000   0.9452
  -8.950  -0.1209   0.09828   0.08605  -0.0213   1.0000   0.9606
  -8.500  -0.0567   0.08687   0.07452  -0.0342   1.0000   1.0000
  -8.000  -0.0394   0.08189   0.06961  -0.0357   1.0000   1.0000
  -7.500  -0.0227   0.07714   0.06492  -0.0371   1.0000   1.0000
  -7.450  -0.0210   0.07667   0.06447  -0.0372   1.0000   1.0000
  -7.000  -0.0068   0.07261   0.06043  -0.0382   1.0000   1.0000
  -6.950  -0.0053   0.07217   0.06000  -0.0383   1.0000   1.0000
  -6.500  -0.1469   0.08290   0.07155  -0.0084   1.0000   0.8281
  -6.000  -0.2847   0.08763   0.07712   0.0011   1.0000   0.5935
  -5.500  -0.3651   0.08579   0.07584   0.0041   1.0000   0.4929
  -5.000  -0.4101   0.08040   0.07075   0.0010   1.0000   0.4274
  -4.500  -0.4276   0.07287   0.06313  -0.0078   1.0000   0.3792
  -4.000  -0.4065   0.06489   0.05486  -0.0141   1.0000   0.3549
  -3.500  -0.3658   0.05687   0.04609  -0.0237   1.0000   0.3401
  -3.000  -0.3199   0.05092   0.03955  -0.0274   1.0000   0.3450
  -2.500  -0.2702   0.04644   0.03441  -0.0300   1.0000   0.3777
  -2.000  -0.2168   0.04248   0.03000  -0.0312   1.0000   0.4301
  -1.950  -0.2098   0.04211   0.02950  -0.0318   1.0000   0.4400
  -1.900  -0.2066   0.04176   0.02926  -0.0311   1.0000   0.4476
  -1.800  -0.1965   0.04103   0.02853  -0.0309   1.0000   0.4670
  -1.500  -0.1702   0.03879   0.02658  -0.0287   1.0000   0.5490
  -1.450  -0.1667   0.03839   0.02629  -0.0280   1.0000   0.5677
  -1.400  -0.1637   0.03799   0.02601  -0.0271   1.0000   0.5879
  -1.000  -0.0885   0.03334   0.02113  -0.0333   1.0000   1.0000
  -0.500  -0.0458   0.03434   0.02068  -0.0339   1.0000   1.0000
   0.000  -0.0075   0.03556   0.02102  -0.0337   1.0000   1.0000
   0.150   0.0036   0.03597   0.02121  -0.0336   1.0000   1.0000
   0.500   0.0292   0.03701   0.02181  -0.0335   1.0000   1.0000
   0.600   0.0364   0.03733   0.02200  -0.0335   1.0000   1.0000
   1.000   0.0647   0.03871   0.02297  -0.0335   1.0000   1.0000
   1.050   0.0682   0.03889   0.02311  -0.0335   1.0000   1.0000
   1.500   0.0988   0.04066   0.02451  -0.0336   1.0000   1.0000
   1.550   0.1021   0.04088   0.02469  -0.0336   1.0000   1.0000
   2.000   0.1312   0.04292   0.02646  -0.0339   1.0000   1.0000
   2.500   0.1618   0.04549   0.02881  -0.0344   1.0000   1.0000
   3.000   0.1905   0.04842   0.03157  -0.0352   1.0000   1.0000
   3.500   0.2175   0.05169   0.03473  -0.0361   1.0000   1.0000
   4.000   0.2431   0.05527   0.03823  -0.0373   1.0000   1.0000
   4.500   0.2681   0.05909   0.04201  -0.0385   1.0000   1.0000
   5.000   0.2926   0.06311   0.04601  -0.0398   1.0000   1.0000
   5.050   0.2950   0.06352   0.04642  -0.0400   1.0000   1.0000
   5.500   0.3170   0.06731   0.05022  -0.0412   1.0000   1.0000
   5.550   0.3194   0.06774   0.05065  -0.0414   1.0000   1.0000
   5.650   0.3242   0.06860   0.05152  -0.0416   1.0000   1.0000
   5.700   0.3266   0.06903   0.05195  -0.0418   1.0000   1.0000
   5.800   0.3315   0.06991   0.05284  -0.0421   1.0000   1.0000
   5.850   0.3339   0.07035   0.05328  -0.0422   1.0000   1.0000
   6.200   0.3507   0.07347   0.05644  -0.0432   1.0000   1.0000
   6.350   0.3578   0.07484   0.05783  -0.0437   1.0000   1.0000
   6.500   0.3648   0.07622   0.05923  -0.0441   1.0000   1.0000
   6.550   0.3672   0.07669   0.05970  -0.0443   1.0000   1.0000
   7.000   0.3880   0.08097   0.06408  -0.0456   1.0000   1.0000
   7.500   0.4107   0.08593   0.06916  -0.0473   1.0000   1.0000
   7.700   0.4195   0.08799   0.07127  -0.0479   1.0000   1.0000
   7.750   0.4217   0.08851   0.07180  -0.0481   1.0000   1.0000
   7.800   0.4239   0.08903   0.07234  -0.0483   1.0000   1.0000
   7.850   0.4261   0.08955   0.07288  -0.0484   1.0000   1.0000
   7.900   0.4283   0.09008   0.07342  -0.0486   1.0000   1.0000
   7.950   0.4305   0.09061   0.07397  -0.0488   1.0000   1.0000
   8.300   0.4454   0.09439   0.07790  -0.0501   1.0000   1.0000
   8.500   0.4537   0.09661   0.08018  -0.0508   1.0000   1.0000
   9.000   0.4739   0.10234   0.08611  -0.0528   1.0000   1.0000
   9.250   0.4837   0.10533   0.08920  -0.0538   1.0000   1.0000
   9.500   0.4932   0.10839   0.09236  -0.0549   1.0000   1.0000
  10.550   0.5890   0.12934   0.11414  -0.0725   0.9141   1.0000
  10.700   0.6110   0.13446   0.11938  -0.0764   0.8996   1.0000
  11.000   0.6197   0.13700   0.12209  -0.0770   0.8680   1.0000
  11.300   0.6509   0.14505   0.13035  -0.0817   0.8404   1.0000
  12.250   0.6994   0.15998   0.14575  -0.0865   0.7607   1.0000
  12.400   0.6938   0.15949   0.14526  -0.0853   0.7540   1.0000
  12.450   0.6948   0.15986   0.14565  -0.0853   0.7504   1.0000
  12.650   0.7148   0.16597   0.15188  -0.0880   0.7394   1.0000
  12.750   0.7088   0.16485   0.15076  -0.0869   0.7349   1.0000
  13.250   0.4760   0.14010   0.12756  -0.0484   0.6718   1.0000
  13.500   0.7386   0.17549   0.16181  -0.0898   0.6943   1.0000
  13.600   0.7436   0.17683   0.16320  -0.0902   0.6863   1.0000
  14.000   0.7671   0.18447   0.17103  -0.0925   0.6621   1.0000
  14.100   0.7726   0.18687   0.17346  -0.0932   0.6592   1.0000
  14.150   0.7698   0.18612   0.17271  -0.0928   0.6577   1.0000
  14.250   0.7681   0.18571   0.17233  -0.0925   0.6527   1.0000
  14.450   0.7850   0.19118   0.17794  -0.0943   0.6417   1.0000
  15.150   0.8068   0.19903   0.18604  -0.0962   0.6045   1.0000
  15.550   0.8186   0.20369   0.19084  -0.0976   0.5876   1.0000
  15.750   0.8360   0.21078   0.19817  -0.0994   0.5794   1.0000
  15.850   0.8313   0.20894   0.19632  -0.0991   0.5761   1.0000
  16.000   0.8360   0.21024   0.19770  -0.0996   0.5664   1.0000
  16.500   0.8617   0.22062   0.20831  -0.1020   0.5388   1.0000
  16.550   0.8596   0.21969   0.20737  -0.1020   0.5373   1.0000
  16.900   0.8788   0.22805   0.21592  -0.1040   0.5196   1.0000
  17.000   0.8744   0.22592   0.21377  -0.1041   0.5168   1.0000
  17.250   0.8901   0.23275   0.22074  -0.1053   0.4993   1.0000
  17.300   0.8872   0.23122   0.21920  -0.1053   0.4978   1.0000
  17.950   0.9128   0.24264   0.23083  -0.1082   0.4588   1.0000
  18.000   0.9107   0.24137   0.22954  -0.1084   0.4571   1.0000
  18.050   0.9096   0.24056   0.22873  -0.1086   0.4544   1.0000
  18.100   0.9104   0.24065   0.22883  -0.1087   0.4505   1.0000
  18.200   0.9252   0.24828   0.23653  -0.1090   0.4396   1.0000
  18.500   0.9376   0.25395   0.24227  -0.1102   0.4199   1.0000
  18.550   0.9355   0.25264   0.24094  -0.1105   0.4192   1.0000
  18.600   0.9338   0.25151   0.23979  -0.1108   0.4181   1.0000
  18.850   0.9396   0.25312   0.24144  -0.1121   0.4048   1.0000
  19.000   0.9486   0.25839   0.24673  -0.1128   0.3986   1.0000
  20.150   0.9806   0.27079   0.25920  -0.1198   0.3521   1.0000
  20.600   0.9982   0.27911   0.26756  -0.1224   0.3367   1.0000
  21.000   1.0204   0.29175   0.28044  -0.1240   0.3199   1.0000
  21.050   1.0194   0.29039   0.27907  -0.1246   0.3194   1.0000
  21.100   1.0185   0.28911   0.27778  -0.1252   0.3188   1.0000
  21.500   0.6662   0.23734   0.22733  -0.0706   0.3190   1.0000
  21.800   1.0453   0.30282   0.29157  -0.1296   0.2998   1.0000
  22.000   1.0443   0.29888   0.28760  -0.1320   0.2973   1.0000
  22.300   1.0512   0.30000   0.28873  -0.1346   0.2889   1.0000
  22.500   1.0614   0.30555   0.29434  -0.1355   0.2833   1.0000
  23.000   1.0747   0.31078   0.29956  -0.1399   0.2757   1.0000
  23.500   1.0955   0.32147   0.31036  -0.1428   0.2619   1.0000
  23.750   1.1026   0.32527   0.31413  -0.1450   0.2588   1.0000
  24.000   0.7037   0.26986   0.26031  -0.0800   0.2593   1.0000
  24.050   1.1067   0.32264   0.31149  -0.1485   0.2520   1.0000
  24.850   1.1328   0.33425   0.32316  -0.1548   0.2360   1.0000
  25.000   0.7196   0.28457   0.27517  -0.0840   0.2399   1.0000
  25.600   1.1642   0.35622   0.34543  -0.1589   0.2204   1.0000
  26.000   1.1685   0.34990   0.33903  -0.1645   0.2174   1.0000
  26.100   1.1703   0.34923   0.33836  -0.1658   0.2158   1.0000
  26.300   1.1752   0.34989   0.33905  -0.1679   0.2119   1.0000
  27.300   1.2070   0.36663   0.35591  -0.1760   0.1980   1.0000
  27.500   1.2106   0.36466   0.35394  -0.1787   0.1950   1.0000
  27.750   0.7442   0.31606   0.30713  -0.0965   0.1978   1.0000
