  
       XFOIL         Version 6.99
  
 Calculated polar for: CLARK Y AIRFOIL                                 
  
 1 1 Reynolds number fixed          Mach number fixed         
  
 xtrf =   1.000 (top)        1.000 (bottom)  
 Mach =   0.000     Re =     0.010 e 6     Ncrit =   9.000
  
   alpha    CL        CD       CDp       CM     Top_Xtr  Bot_Xtr
  ------ -------- --------- --------- -------- -------- --------
 -15.000  -0.3053   0.16511   0.14722  -0.0060   1.0000   1.0000
 -14.000  -0.2660   0.15321   0.13532  -0.0118   1.0000   1.0000
 -12.950  -0.2255   0.14103   0.12306  -0.0175   1.0000   1.0000
 -12.000  -0.1897   0.13031   0.11235  -0.0222   1.0000   1.0000
 -11.500  -0.1712   0.12478   0.10684  -0.0245   1.0000   1.0000
 -10.900  -0.1496   0.11826   0.10034  -0.0271   1.0000   1.0000
 -10.000  -0.1180   0.10873   0.09079  -0.0307   1.0000   1.0000
  -9.000  -0.0845   0.09857   0.08072  -0.0342   1.0000   1.0000
  -8.000  -0.0533   0.08895   0.07125  -0.0372   1.0000   1.0000
  -7.000  -0.1676   0.09458   0.07785  -0.0108   1.0000   0.8348
  -6.000  -0.2146   0.08946   0.07348  -0.0032   1.0000   0.7495
  -5.000  -0.2586   0.08252   0.06733   0.0049   1.0000   0.7118
  -4.000  -0.3179   0.07512   0.06076   0.0160   1.0000   0.6950
  -3.000  -0.1178   0.05668   0.04132  -0.0132   1.0000   0.9254
  -2.000  -0.1141   0.04547   0.03038  -0.0282   1.0000   1.0000
  -1.000  -0.0806   0.04300   0.02425  -0.0330   1.0000   1.0000
   0.000  -0.0063   0.04478   0.02354  -0.0322   1.0000   1.0000
   1.000   0.0637   0.04747   0.02469  -0.0313   1.0000   1.0000
   2.000   0.1294   0.05113   0.02735  -0.0308   1.0000   1.0000
   3.000   0.1900   0.05589   0.03152  -0.0311   1.0000   1.0000
   4.000   0.2449   0.06186   0.03719  -0.0322   1.0000   1.0000
   5.000   0.2951   0.06900   0.04424  -0.0341   1.0000   1.0000
   6.000   0.3422   0.07711   0.05244  -0.0365   1.0000   1.0000
   7.000   0.3875   0.08608   0.06164  -0.0393   1.0000   1.0000
   8.000   0.4307   0.09585   0.07181  -0.0425   1.0000   1.0000
   9.000   0.4713   0.10648   0.08290  -0.0462   1.0000   1.0000
  10.000   0.5092   0.11801   0.09500  -0.0504   1.0000   1.0000
  11.000   0.5447   0.13044   0.10814  -0.0554   1.0000   1.0000
  12.000   0.5788   0.14359   0.12189  -0.0610   1.0000   1.0000
  13.000   0.6132   0.15724   0.13613  -0.0672   1.0000   1.0000
  14.000   0.6485   0.17117   0.15077  -0.0738   1.0000   1.0000
  15.000   0.6848   0.18532   0.16549  -0.0807   1.0000   1.0000
  16.000   0.7394   0.20533   0.18624  -0.0926   0.9803   1.0000
  17.000   0.8074   0.22705   0.20896  -0.1072   0.9005   1.0000
  18.000   0.8525   0.23936   0.22186  -0.1152   0.8294   1.0000
  19.000   0.9024   0.25892   0.24194  -0.1239   0.7575   1.0000
  19.050   0.9025   0.25792   0.24095  -0.1239   0.7546   1.0000
  19.150   0.9075   0.25967   0.24276  -0.1247   0.7459   1.0000
  19.200   0.9154   0.26557   0.24873  -0.1260   0.7404   1.0000
  19.500   0.9264   0.26852   0.25174  -0.1276   0.7184   1.0000
  19.800   0.9380   0.27215   0.25546  -0.1294   0.6972   1.0000
  19.950   0.9422   0.27244   0.25579  -0.1301   0.6875   1.0000