  
       XFOIL         Version 6.99
  
 Calculated polar for: NACA 2412                                       
  
 1 1 Reynolds number fixed          Mach number fixed         
  
 xtrf =   1.000 (top)        1.000 (bottom)  
 Mach =   0.000     Re =     0.020 e 6     Ncrit =   9.000
  
   alpha    CL        CD       CDp       CM     Top_Xtr  Bot_Xtr
  ------ -------- --------- --------- -------- -------- --------
 -44.950  -0.6149   0.40724   0.40007   0.1256   1.0000   0.0656
 -44.000  -0.6168   0.40345   0.39604   0.1206   1.0000   0.0672
 -44.000  -0.6168   0.40345   0.39604   0.1206   1.0000   0.0672
 -43.600  -0.6175   0.40189   0.39438   0.1185   1.0000   0.0679
 -42.450  -0.6191   0.39752   0.38970   0.1124   1.0000   0.0700
 -42.300  -0.6192   0.39700   0.38914   0.1116   1.0000   0.0703
 -41.700  -0.6198   0.39497   0.38695   0.1084   1.0000   0.0714
 -41.650  -0.6198   0.39483   0.38680   0.1082   1.0000   0.0715
 -40.850  -0.6207   0.39287   0.38462   0.1039   1.0000   0.0728
 -40.700  -0.6209   0.39266   0.38437   0.1031   1.0000   0.0730
 -40.650  -0.6210   0.39261   0.38431   0.1028   1.0000   0.0731
 -40.600  -0.6211   0.39257   0.38426   0.1026   1.0000   0.0731
 -40.350  -0.6216   0.39248   0.38409   0.1013   1.0000   0.0734
 -39.850  -0.6231   0.39318   0.38452   0.0987   1.0000   0.0739
 -39.600  -0.6242   0.39405   0.38532   0.0974   1.0000   0.0742
 -39.400  -0.6253   0.39504   0.38624   0.0964   1.0000   0.0743
 -37.750  -0.6297   0.39334   0.38415   0.0886   1.0000   0.0758
 -37.600  -0.6255   0.38655   0.37732   0.0879   1.0000   0.0764
 -37.400  -0.6230   0.38205   0.37278   0.0871   1.0000   0.0772
 -36.900  -0.6204   0.37697   0.36755   0.0851   1.0000   0.0793
 -36.800  -0.6201   0.37632   0.36688   0.0847   1.0000   0.0798
 -36.750  -0.6200   0.37603   0.36657   0.0845   1.0000   0.0800
 -36.400  -0.6191   0.37421   0.36464   0.0831   1.0000   0.0817
 -36.250  -0.6189   0.37355   0.36394   0.0824   1.0000   0.0824
 -35.700  -0.6179   0.37138   0.36149   0.0801   1.0000   0.0853
 -35.650  -0.6178   0.37120   0.36130   0.0799   1.0000   0.0856
 -35.400  -0.6175   0.37037   0.36039   0.0788   1.0000   0.0869
 -35.300  -0.6173   0.37005   0.36004   0.0783   1.0000   0.0874
 -35.200  -0.6172   0.36974   0.35971   0.0779   1.0000   0.0879
 -35.050  -0.6170   0.36931   0.35924   0.0772   1.0000   0.0887
 -34.750  -0.6168   0.36863   0.35847   0.0759   1.0000   0.0902
 -34.400  -0.6167   0.36822   0.35796   0.0743   1.0000   0.0920
 -34.000  -0.6174   0.36899   0.35861   0.0725   1.0000   0.0941
 -33.850  -0.6182   0.36989   0.35947   0.0718   1.0000   0.0949
 -33.800  -0.6185   0.37031   0.35987   0.0716   1.0000   0.0951
 -33.200  -0.6279   0.38139   0.37075   0.0696   1.0000   0.0975
 -33.150  -0.6293   0.38290   0.37224   0.0695   1.0000   0.0976
 -32.900  -0.6374   0.39161   0.38085   0.0693   1.0000   0.0983
 -32.650  -0.6476   0.40184   0.39097   0.0693   1.0000   0.0987
 -32.550  -0.6521   0.40623   0.39532   0.0694   1.0000   0.0989
 -32.400  -0.6595   0.41306   0.40208   0.0697   1.0000   0.0991
 -32.350  -0.6620   0.41536   0.40435   0.0698   1.0000   0.0992
 -31.700  -0.7009   0.44712   0.43576   0.0722   1.0000   0.0998
 -31.150  -0.6454   0.38502   0.37388   0.0632   1.0000   0.1026
 -31.000  -0.6335   0.37225   0.36112   0.0617   1.0000   0.1039
 -30.500  -0.6215   0.35832   0.34693   0.0599   1.0000   0.1077
 -30.450  -0.6210   0.35763   0.34623   0.0597   1.0000   0.1081
 -30.300  -0.6198   0.35590   0.34445   0.0594   1.0000   0.1092
 -30.000  -0.6184   0.35338   0.34186   0.0586   1.0000   0.1115
 -29.500  -0.6178   0.35065   0.33899   0.0575   1.0000   0.1155
 -29.450  -0.6178   0.35044   0.33876   0.0574   1.0000   0.1159
 -29.350  -0.6179   0.35004   0.33834   0.0572   1.0000   0.1168
 -29.150  -0.6182   0.34931   0.33755   0.0567   1.0000   0.1185
 -29.000  -0.6186   0.34883   0.33703   0.0564   1.0000   0.1198
 -28.850  -0.6191   0.34841   0.33656   0.0561   1.0000   0.1211
 -28.500  -0.6207   0.34759   0.33564   0.0554   1.0000   0.1242
 -28.000  -0.6243   0.34688   0.33478   0.0546   1.0000   0.1288
 -27.950  -0.6248   0.34685   0.33474   0.0545   1.0000   0.1293
 -27.900  -0.6253   0.34682   0.33469   0.0544   1.0000   0.1298
 -27.850  -0.6258   0.34680   0.33466   0.0544   1.0000   0.1302
 -27.800  -0.6263   0.34679   0.33463   0.0543   1.0000   0.1307
 -27.700  -0.6274   0.34680   0.33460   0.0542   1.0000   0.1317
 -27.600  -0.6287   0.34685   0.33462   0.0540   1.0000   0.1326
 -27.550  -0.6293   0.34690   0.33465   0.0540   1.0000   0.1331
 -27.250  -0.6341   0.34747   0.33512   0.0537   1.0000   0.1360
 -27.200  -0.6351   0.34764   0.33527   0.0537   1.0000   0.1365
 -26.950  -0.6408   0.34889   0.33643   0.0537   1.0000   0.1389
 -26.900  -0.6422   0.34924   0.33676   0.0537   1.0000   0.1393
 -26.800  -0.6453   0.35010   0.33758   0.0538   1.0000   0.1402
 -26.650  -0.6510   0.35183   0.33924   0.0541   1.0000   0.1415
 -26.600  -0.6533   0.35256   0.33994   0.0542   1.0000   0.1419
 -26.550  -0.6558   0.35338   0.34074   0.0544   1.0000   0.1423
 -26.450  -0.6617   0.35534   0.34264   0.0548   1.0000   0.1430
 -26.350  -0.6692   0.35783   0.34506   0.0555   1.0000   0.1436
 -26.300  -0.6739   0.35935   0.34654   0.0560   1.0000   0.1439
 -26.250  -0.6794   0.36111   0.34826   0.0567   1.0000   0.1441
 -26.200  -0.6863   0.36324   0.35033   0.0575   1.0000   0.1443
 -25.900  -0.7249   0.37315   0.35994   0.0621   1.0000   0.1455
 -25.850  -0.7273   0.37375   0.36052   0.0622   1.0000   0.1457
 -25.750  -0.7318   0.37495   0.36168   0.0622   1.0000   0.1462
 -25.700  -0.7338   0.37555   0.36227   0.0621   1.0000   0.1465
 -25.650  -0.7358   0.37618   0.36287   0.0621   1.0000   0.1467
 -25.600  -0.7377   0.37681   0.36349   0.0620   1.0000   0.1469
 -25.400  -0.7447   0.37943   0.36606   0.0616   1.0000   0.1476
 -25.350  -0.7463   0.38011   0.36674   0.0614   1.0000   0.1478
 -25.000  -0.7561   0.38493   0.37150   0.0602   1.0000   0.1487
 -24.500  -0.7666   0.39137   0.37789   0.0579   1.0000   0.1495
 -24.000  -0.7742   0.39666   0.38318   0.0553   1.0000   0.1501
 -23.500  -0.7147   0.33155   0.31806   0.0534   1.0000   0.1584
 -23.400  -0.7114   0.32846   0.31496   0.0532   1.0000   0.1599
 -23.300  -0.7085   0.32576   0.31225   0.0530   1.0000   0.1613
 -23.000  -0.7012   0.31897   0.30541   0.0520   1.0000   0.1657
 -22.500  -0.6909   0.30971   0.29608   0.0500   1.0000   0.1733
 -22.000  -0.6816   0.30185   0.28792   0.0475   1.0000   0.1814
 -21.500  -0.6743   0.29637   0.28243   0.0446   1.0000   0.1898
 -21.000  -0.6743   0.29895   0.28505   0.0409   1.0000   0.1963
 -20.900  -0.6756   0.30067   0.28678   0.0402   1.0000   0.1970
 -20.800  -0.6771   0.30259   0.28872   0.0395   1.0000   0.1976
 -20.750  -0.6779   0.30360   0.28973   0.0392   1.0000   0.1978
 -20.650  -0.6795   0.30567   0.29182   0.0385   1.0000   0.1983
 -20.500  -0.6822   0.30883   0.29500   0.0376   1.0000   0.1988
 -20.000  -0.6909   0.31861   0.30489   0.0347   1.0000   0.1999
 -19.500  -0.6338   0.26465   0.25087   0.0335   1.0000   0.2102
 -19.000  -0.6145   0.25328   0.23950   0.0320   1.0000   0.2220
 -18.950  -0.6130   0.25247   0.23869   0.0318   1.0000   0.2232
 -18.900  -0.6116   0.25169   0.23791   0.0316   1.0000   0.2245
 -18.500  -0.6026   0.24703   0.23329   0.0296   1.0000   0.2351
 -18.000  -0.6051   0.25190   0.23827   0.0264   1.0000   0.2462
 -17.500  -0.6227   0.26701   0.25356   0.0239   1.0000   0.2494
 -17.400  -0.6263   0.26924   0.25583   0.0234   1.0000   0.2497
 -17.350  -0.6281   0.27025   0.25685   0.0232   1.0000   0.2498
 -17.300  -0.6297   0.27116   0.25778   0.0229   1.0000   0.2500
 -17.000  -0.5669   0.22518   0.21146   0.0231   1.0000   0.2740
 -16.500  -0.5722   0.23751   0.22389   0.0214   1.0000   0.2922
 -16.400  -0.5784   0.24367   0.23009   0.0215   1.0000   0.2944
 -16.000  -0.5970   0.26098   0.24753   0.0214   1.0000   0.2989
 -15.500  -0.5256   0.20087   0.18731   0.0183   1.0000   0.3295
 -15.000  -0.5226   0.20647   0.19296   0.0200   1.0000   0.3886
 -14.500  -0.5195   0.19686   0.18355   0.0194   1.0000   0.4143
 -14.400  -0.4994   0.18817   0.17481   0.0186   1.0000   0.4226
 -14.000  -0.4694   0.17742   0.16401   0.0177   1.0000   0.4488
 -13.950  -0.4674   0.17679   0.16338   0.0176   1.0000   0.4520
 -13.900  -0.4656   0.17626   0.16285   0.0175   1.0000   0.4552
 -13.500  -0.4639   0.17741   0.16405   0.0180   1.0000   0.4813
 -13.000  -0.5079   0.20129   0.18813   0.0237   1.0000   0.4978
 -12.500  -0.4554   0.16768   0.15456   0.0175   1.0000   0.5148
 -12.400  -0.4381   0.16183   0.14869   0.0162   1.0000   0.5209
 -12.000  -0.4018   0.15132   0.13814   0.0141   1.0000   0.5473
 -11.500  -0.4082   0.15564   0.14255   0.0173   1.0000   0.5884
 -11.000  -0.4486   0.16866   0.15587   0.0242   1.0000   0.6021
 -10.500  -0.3481   0.13179   0.11884   0.0125   1.0000   0.6368
 -10.000  -0.3364   0.12990   0.11700   0.0141   1.0000   0.6829
  -9.500  -0.3421   0.12681   0.11410   0.0171   1.0000   0.7111
  -9.000  -0.3070   0.12612   0.11335   0.0176   1.0000   0.7966
  -8.500  -0.2126   0.09976   0.08693   0.0037   1.0000   0.9057
  -8.000  -0.3860   0.11197   0.09963   0.0052   1.0000   0.4929
  -7.500  -0.4171   0.10206   0.08995  -0.0039   1.0000   0.3935
  -7.000  -0.4264   0.09610   0.08421  -0.0042   1.0000   0.3967
  -6.500  -0.4303   0.08686   0.07516  -0.0048   1.0000   0.3952
  -6.000  -0.4360   0.07685   0.06530  -0.0052   1.0000   0.3899
  -5.500  -0.4452   0.06858   0.05711  -0.0053   1.0000   0.3911
  -5.000  -0.4480   0.06139   0.04990  -0.0056   1.0000   0.4008
  -4.950  -0.4492   0.05986   0.04835  -0.0057   1.0000   0.4025
  -4.500  -0.4293   0.05453   0.04322   0.0033   1.0000   0.4758
  -4.000  -0.4149   0.04787   0.03655   0.0072   1.0000   0.5325
  -3.500  -0.3938   0.04356   0.03223   0.0140   1.0000   0.6225
  -3.000  -0.2893   0.03971   0.02804   0.0142   1.0000   0.8240
  -2.500  -0.0779   0.03232   0.01912  -0.0306   1.0000   1.0000
  -2.000  -0.1165   0.03060   0.01727  -0.0226   1.0000   1.0000
  -1.500  -0.1177   0.03016   0.01630  -0.0177   1.0000   1.0000
  -1.000  -0.0981   0.03038   0.01598  -0.0151   1.0000   1.0000
  -0.500  -0.0717   0.03097   0.01613  -0.0134   1.0000   1.0000
   0.000  -0.0428   0.03186   0.01667  -0.0123   1.0000   1.0000
   0.500  -0.0131   0.03302   0.01756  -0.0116   1.0000   1.0000
   1.000   0.0166   0.03445   0.01880  -0.0112   1.0000   1.0000
   1.500   0.0462   0.03616   0.02037  -0.0112   1.0000   1.0000
   2.000   0.0755   0.03813   0.02227  -0.0114   1.0000   1.0000
   2.500   0.1039   0.04038   0.02449  -0.0118   1.0000   1.0000
   3.000   0.1317   0.04293   0.02698  -0.0125   1.0000   1.0000
   3.500   0.1585   0.04582   0.02982  -0.0135   1.0000   1.0000
   4.000   0.1845   0.04899   0.03300  -0.0146   1.0000   1.0000
   4.500   0.2101   0.05241   0.03644  -0.0158   1.0000   1.0000
   5.000   0.2348   0.05608   0.04019  -0.0172   1.0000   1.0000
   5.500   0.2582   0.06008   0.04429  -0.0188   1.0000   1.0000
   6.000   0.2800   0.06444   0.04877  -0.0206   1.0000   1.0000
   6.500   0.3006   0.06915   0.05362  -0.0226   1.0000   1.0000
   7.000   0.3199   0.07416   0.05879  -0.0247   1.0000   1.0000
   7.500   0.3384   0.07956   0.06437  -0.0270   1.0000   1.0000
   7.800   0.3492   0.08300   0.06791  -0.0285   1.0000   1.0000
   7.900   0.3528   0.08417   0.06913  -0.0290   1.0000   1.0000
   8.000   0.3563   0.08536   0.07036  -0.0295   1.0000   1.0000
   8.150   0.3616   0.08717   0.07223  -0.0303   1.0000   1.0000
   8.200   0.3633   0.08778   0.07286  -0.0306   1.0000   1.0000
   8.300   0.3668   0.08902   0.07414  -0.0311   1.0000   1.0000
   8.450   0.3719   0.09091   0.07609  -0.0319   1.0000   1.0000
   8.650   0.3786   0.09347   0.07874  -0.0331   1.0000   1.0000
   9.000   0.6606   0.11577   0.10231  -0.0623   0.6063   1.0000
   9.050   0.6646   0.11925   0.10574  -0.0622   0.5961   1.0000
   9.100   0.6531   0.11662   0.10315  -0.0621   0.6081   1.0000
   9.150   0.6604   0.12067   0.10717  -0.0622   0.5952   1.0000
   9.200   0.6509   0.11847   0.10502  -0.0625   0.6086   1.0000
   9.300   0.6569   0.12350   0.11002  -0.0626   0.5946   1.0000
   9.550   0.4767   0.11305   0.09904  -0.0538   0.9139   1.0000
  10.000   0.6552   0.12683   0.11352  -0.0580   0.5187   1.0000
  10.500   0.6566   0.13622   0.12288  -0.0574   0.4803   1.0000
  10.800   0.6132   0.15427   0.14098  -0.0721   0.6923   1.0000
  10.900   0.5911   0.14562   0.13227  -0.0677   0.6810   1.0000
  11.050   0.5849   0.14379   0.13044  -0.0661   0.6650   1.0000
  11.500   0.6048   0.15130   0.13804  -0.0679   0.6330   1.0000
  12.000   0.6868   0.19040   0.17723  -0.0782   0.5972   1.0000
  12.500   0.6375   0.16895   0.15565  -0.0704   0.5726   1.0000
  13.000   0.6736   0.17843   0.16518  -0.0712   0.5212   1.0000
  13.050   0.6772   0.17991   0.16667  -0.0716   0.5200   1.0000
  13.500   0.7198   0.19917   0.18600  -0.0758   0.5093   1.0000
  13.550   0.7259   0.20235   0.18919  -0.0765   0.5082   1.0000
  13.600   0.7325   0.20597   0.19282  -0.0773   0.5071   1.0000
  13.750   0.7555   0.22097   0.20787  -0.0802   0.5034   1.0000
  13.850   0.7705   0.24069   0.22749  -0.0832   0.4999   1.0000
  14.050   0.7697   0.24196   0.22875  -0.0834   0.4995   1.0000
  14.150   0.7689   0.24226   0.22904  -0.0835   0.4992   1.0000
  14.500   0.7639   0.24104   0.22777  -0.0833   0.4979   1.0000
  14.600   0.7611   0.23968   0.22640  -0.0831   0.4973   1.0000
  15.000   0.7412   0.22679   0.21342  -0.0811   0.4925   1.0000
  15.500   0.7257   0.21162   0.19816  -0.0800   0.4711   1.0000
  16.000   0.7380   0.21611   0.20264  -0.0814   0.4491   1.0000
  16.500   0.7608   0.22590   0.21247  -0.0829   0.4297   1.0000
  17.000   0.8034   0.24873   0.23543  -0.0852   0.4118   1.0000
  18.100   0.8137   0.25927   0.24637  -0.0844   0.3190   1.0000
  18.500   0.8641   0.32561   0.31269  -0.0867   0.2990   1.0000
  19.000   0.8471   0.30377   0.29071  -0.0879   0.2945   1.0000
  19.050   0.8442   0.30060   0.28752  -0.0880   0.2936   1.0000
  19.500   0.8310   0.28594   0.27277  -0.0899   0.2801   1.0000
  19.550   0.8312   0.28601   0.27284  -0.0901   0.2784   1.0000
  20.000   0.8408   0.29249   0.27933  -0.0915   0.2644   1.0000
  20.050   0.8428   0.29377   0.28061  -0.0915   0.2629   1.0000
  20.500   0.9059   0.34419   0.33105  -0.0925   0.2499   1.0000
  21.000   0.8834   0.33278   0.31959  -0.0945   0.2482   1.0000
  21.500   0.8606   0.32325   0.31004  -0.0967   0.2428   1.0000
  22.000   0.8536   0.32632   0.31316  -0.0983   0.2312   1.0000
  22.100   0.8533   0.32770   0.31455  -0.0985   0.2288   1.0000
  22.500   0.8531   0.33395   0.32087  -0.0989   0.2199   1.0000
  23.000   0.8585   0.34456   0.33158  -0.0987   0.2097   1.0000
  23.500   0.9384   0.40276   0.39001  -0.1034   0.1999   1.0000
  24.000   0.9092   0.39370   0.38103  -0.1034   0.1990   1.0000
  24.100   0.9013   0.39133   0.37869  -0.1031   0.1987   1.0000
  24.250   0.8870   0.38717   0.37459  -0.1022   0.1983   1.0000
  24.300   0.8814   0.38554   0.37299  -0.1017   0.1981   1.0000
  24.350   0.8750   0.38372   0.37120  -0.1011   0.1980   1.0000
  24.450   0.8507   0.37676   0.36436  -0.0979   0.1977   1.0000
  24.650   0.8044   0.36104   0.34888  -0.0918   0.1971   1.0000
  24.700   0.7972   0.35825   0.34613  -0.0910   0.1968   1.0000
  25.000   0.7665   0.34579   0.33384  -0.0882   0.1948   1.0000
  25.500   0.7435   0.33756   0.32581  -0.0872   0.1883   1.0000
  26.000   0.7345   0.33688   0.32527  -0.0873   0.1803   1.0000
  26.500   0.7302   0.33832   0.32683  -0.0876   0.1725   1.0000
  27.000   0.7290   0.34115   0.32979  -0.0880   0.1651   1.0000
  27.150   0.7294   0.34245   0.33112  -0.0881   0.1629   1.0000
  27.200   0.7297   0.34296   0.33165  -0.0881   0.1622   1.0000
  27.250   0.7300   0.34351   0.33221  -0.0882   0.1615   1.0000
  27.300   0.7304   0.34413   0.33284  -0.0882   0.1608   1.0000
  27.400   0.7316   0.34560   0.33433  -0.0883   0.1594   1.0000
  27.450   0.7324   0.34648   0.33522  -0.0883   0.1588   1.0000
  27.550   0.7345   0.34868   0.33745  -0.0885   0.1574   1.0000
  28.000   0.8349   0.43272   0.42113  -0.0997   0.1499   1.0000
  28.200   0.8162   0.42266   0.41118  -0.0979   0.1497   1.0000
  28.250   0.8119   0.42027   0.40882  -0.0975   0.1497   1.0000
  28.400   0.7998   0.41330   0.40193  -0.0965   0.1495   1.0000
  28.450   0.7960   0.41105   0.39970  -0.0962   0.1494   1.0000
  28.550   0.7887   0.40664   0.39534  -0.0956   0.1493   1.0000
  29.000   0.7601   0.38823   0.37712  -0.0939   0.1486   1.0000
  29.500   0.7364   0.37157   0.36064  -0.0932   0.1473   1.0000
  30.000   0.7222   0.36141   0.35063  -0.0939   0.1448   1.0000
  30.300   0.7180   0.35901   0.34831  -0.0948   0.1424   1.0000
  30.500   0.7165   0.35856   0.34792  -0.0955   0.1404   1.0000
  31.000   0.7145   0.35950   0.34898  -0.0971   0.1350   1.0000
  31.200   0.7141   0.36025   0.34979  -0.0977   0.1328   1.0000
  31.500   0.7138   0.36158   0.35119  -0.0987   0.1295   1.0000
  31.650   0.7137   0.36229   0.35194  -0.0991   0.1280   1.0000
  31.800   0.7136   0.36304   0.35272  -0.0996   0.1264   1.0000
  31.850   0.7136   0.36329   0.35299  -0.0997   0.1259   1.0000
  32.150   0.7136   0.36486   0.35464  -0.1006   0.1229   1.0000
  32.500   0.7137   0.36679   0.35665  -0.1016   0.1195   1.0000
  32.550   0.7138   0.36708   0.35695  -0.1018   0.1190   1.0000
  32.800   0.7140   0.36856   0.35850  -0.1025   0.1167   1.0000
  32.950   0.7143   0.36951   0.35949  -0.1029   0.1154   1.0000
  33.050   0.7144   0.37017   0.36036  -0.1032   0.1145   1.0000
  33.500   0.7156   0.37357   0.36385  -0.1044   0.1107   1.0000
  33.550   0.7158   0.37401   0.36431  -0.1045   0.1102   1.0000
  33.600   0.7160   0.37448   0.36480  -0.1047   0.1098   1.0000
  33.750   0.7168   0.37602   0.36637  -0.1050   0.1086   1.0000
  33.850   0.7174   0.37721   0.36759  -0.1053   0.1079   1.0000
  34.050   0.7192   0.38023   0.37066  -0.1058   0.1063   1.0000
  34.250   0.7221   0.38472   0.37520  -0.1064   0.1048   1.0000
  34.350   0.7243   0.38801   0.37852  -0.1067   0.1040   1.0000
  34.550   0.7324   0.39949   0.39003  -0.1077   0.1025   1.0000
  35.400   0.7537   0.43980   0.43040  -0.1134   0.0994   1.0000
  35.500   0.7497   0.43570   0.42633  -0.1134   0.0993   1.0000
  36.000   0.7315   0.41627   0.40709  -0.1136   0.0985   1.0000
  36.100   0.7284   0.41278   0.40365  -0.1137   0.0983   1.0000
  36.200   0.7255   0.40954   0.40043  -0.1139   0.0981   1.0000
  36.350   0.7217   0.40524   0.39619  -0.1143   0.0977   1.0000
  37.100   0.7118   0.39525   0.38644  -0.1174   0.0942   1.0000
  37.150   0.7115   0.39512   0.38633  -0.1176   0.0939   1.0000
  37.250   0.7111   0.39500   0.38624  -0.1181   0.0932   1.0000
  37.350   0.7108   0.39505   0.38632  -0.1186   0.0925   1.0000
  37.400   0.7106   0.39512   0.38640  -0.1188   0.0921   1.0000
  38.100   0.7094   0.39780   0.38942  -0.1219   0.0873   1.0000
  38.200   0.7092   0.39830   0.38995  -0.1223   0.0866   1.0000
  38.250   0.7092   0.39854   0.39021  -0.1225   0.0863   1.0000
  38.350   0.7090   0.39906   0.39076  -0.1229   0.0857   1.0000
  38.550   0.7088   0.40010   0.39187  -0.1237   0.0844   1.0000
  39.150   0.7082   0.40355   0.39550  -0.1261   0.0809   1.0000
  39.500   0.7080   0.40599   0.39805  -0.1273   0.0789   1.0000
  40.000   0.7094   0.41241   0.40462  -0.1289   0.0765   1.0000
  41.250   0.7080   0.42514   0.41764  -0.1341   0.0745   1.0000
  41.300   0.7075   0.42481   0.41733  -0.1343   0.0744   1.0000
  41.950   0.7017   0.42252   0.41536  -0.1374   0.0738   1.0000
  42.100   0.7007   0.42245   0.41534  -0.1381   0.0736   1.0000
  42.200   0.7001   0.42251   0.41542  -0.1386   0.0735   1.0000
  42.400   0.6989   0.42279   0.41577  -0.1396   0.0732   1.0000
  42.750   0.6972   0.42366   0.41675  -0.1413   0.0726   1.0000
  42.950   0.6963   0.42436   0.41751  -0.1423   0.0722   1.0000
  43.450   0.6941   0.42643   0.41973  -0.1448   0.0711   1.0000
  44.250   0.6905   0.43021   0.42374  -0.1486   0.0690   1.0000
  44.850   0.6877   0.43319   0.42690  -0.1514   0.0674   1.0000
  45.000   0.6869   0.43392   0.42768  -0.1521   0.0670   1.0000
  45.000   0.6869   0.43392   0.42768  -0.1521   0.0670   1.0000
