  
       XFOIL         Version 6.99
  
 Calculated polar for: NACA 2412                                       
  
 1 1 Reynolds number fixed          Mach number fixed         
  
 xtrf =   1.000 (top)        1.000 (bottom)  
 Mach =   0.000     Re =     0.010 e 6     Ncrit =   9.000
  
   alpha    CL        CD       CDp       CM     Top_Xtr  Bot_Xtr
  ------ -------- --------- --------- -------- -------- --------
 -44.900  -0.6131   0.41164   0.40163   0.1233   1.0000   0.1387
 -44.500  -0.6143   0.41081   0.40065   0.1212   1.0000   0.1403
 -44.000  -0.6160   0.41022   0.39989   0.1186   1.0000   0.1422
 -43.500  -0.6179   0.41046   0.39995   0.1160   1.0000   0.1440
 -43.000  -0.6204   0.41185   0.40116   0.1135   1.0000   0.1455
 -42.500  -0.6238   0.41488   0.40400   0.1111   1.0000   0.1468
 -42.000  -0.6285   0.41996   0.40889   0.1090   1.0000   0.1477
 -41.500  -0.6347   0.42750   0.41622   0.1071   1.0000   0.1485
 -41.000  -0.6430   0.43782   0.42632   0.1055   1.0000   0.1492
 -40.950  -0.6439   0.43900   0.42748   0.1054   1.0000   0.1492
 -40.900  -0.6449   0.44023   0.42869   0.1053   1.0000   0.1493
 -39.900  -0.6637   0.46139   0.44956   0.1027   1.0000   0.1503
 -39.500  -0.6310   0.40697   0.39493   0.0966   1.0000   0.1538
 -39.400  -0.6288   0.40314   0.39107   0.0960   1.0000   0.1546
 -39.350  -0.6280   0.40158   0.38949   0.0957   1.0000   0.1550
 -39.300  -0.6272   0.40022   0.38811   0.0954   1.0000   0.1554
 -39.200  -0.6259   0.39785   0.38571   0.0949   1.0000   0.1563
 -39.100  -0.6249   0.39593   0.38375   0.0944   1.0000   0.1571
 -38.700  -0.6221   0.39062   0.37829   0.0926   1.0000   0.1605
 -38.500  -0.6212   0.38878   0.37637   0.0917   1.0000   0.1622
 -38.000  -0.6197   0.38537   0.37276   0.0895   1.0000   0.1667
 -37.500  -0.6187   0.38289   0.37009   0.0873   1.0000   0.1714
 -37.000  -0.6181   0.38099   0.36799   0.0851   1.0000   0.1764
 -36.950  -0.6180   0.38083   0.36781   0.0849   1.0000   0.1769
 -36.500  -0.6179   0.37966   0.36645   0.0830   1.0000   0.1815
 -36.000  -0.6183   0.37915   0.36558   0.0809   1.0000   0.1866
 -35.500  -0.6201   0.38041   0.36663   0.0788   1.0000   0.1914
 -35.000  -0.6247   0.38516   0.37116   0.0771   1.0000   0.1952
 -34.950  -0.6254   0.38591   0.37189   0.0769   1.0000   0.1955
 -34.900  -0.6261   0.38669   0.37265   0.0768   1.0000   0.1958
 -34.850  -0.6269   0.38754   0.37348   0.0766   1.0000   0.1960
 -34.800  -0.6277   0.38844   0.37435   0.0765   1.0000   0.1963
 -34.750  -0.6286   0.38941   0.37530   0.0764   1.0000   0.1965
 -34.700  -0.6296   0.39045   0.37632   0.0763   1.0000   0.1967
 -34.650  -0.6306   0.39152   0.37736   0.0762   1.0000   0.1970
 -34.600  -0.6317   0.39267   0.37848   0.0761   1.0000   0.1972
 -34.450  -0.6352   0.39645   0.38219   0.0759   1.0000   0.1977
 -34.000  -0.6496   0.41119   0.39669   0.0757   1.0000   0.1990
 -33.900  -0.6536   0.41517   0.40060   0.0758   1.0000   0.1992
 -33.800  -0.6579   0.41943   0.40480   0.0759   1.0000   0.1994
 -33.700  -0.6626   0.42392   0.40923   0.0761   1.0000   0.1996
 -33.650  -0.6651   0.42628   0.41156   0.0763   1.0000   0.1996
 -33.200  -0.6415   0.39598   0.38136   0.0715   1.0000   0.2027
 -33.000  -0.6285   0.38088   0.36623   0.0696   1.0000   0.2058
 -32.500  -0.6188   0.36961   0.35480   0.0674   1.0000   0.2132
 -32.000  -0.6160   0.36581   0.35080   0.0657   1.0000   0.2209
 -32.350  -0.6176   0.36810   0.35323   0.0669   1.0000   0.2155
 -32.000  -0.6160   0.36581   0.35080   0.0657   1.0000   0.2209
 -31.500  -0.6157   0.36441   0.34922   0.0642   1.0000   0.2289
 -31.000  -0.6183   0.36538   0.34975   0.0629   1.0000   0.2368
 -30.500  -0.6268   0.37129   0.35544   0.0621   1.0000   0.2435
 -30.450  -0.6282   0.37233   0.35645   0.0621   1.0000   0.2440
 -30.000  -0.6467   0.38616   0.37002   0.0628   1.0000   0.2474
 -29.500  -0.6832   0.41119   0.39464   0.0659   1.0000   0.2492
 -29.350  -0.6990   0.42100   0.40429   0.0676   1.0000   0.2496
 -29.000  -0.6576   0.38517   0.36874   0.0610   1.0000   0.2537
 -28.500  -0.6330   0.36362   0.34711   0.0576   1.0000   0.2644
 -28.000  -0.6357   0.36303   0.34630   0.0571   1.0000   0.2746
 -27.500  -0.6545   0.37257   0.35553   0.0585   1.0000   0.2844
 -27.000  -0.7313   0.40710   0.38929   0.0687   1.0000   0.2911
 -26.850  -0.7501   0.41583   0.39786   0.0709   1.0000   0.2930
 -26.500  -0.7824   0.43644   0.41825   0.0738   1.0000   0.2965
 -26.000  -0.8103   0.46430   0.44602   0.0751   1.0000   0.2992
 -25.500  -0.7538   0.39122   0.37304   0.0673   1.0000   0.3106
 -25.000  -0.7213   0.36424   0.34596   0.0640   1.0000   0.3258
 -24.500  -0.7112   0.35256   0.33414   0.0627   1.0000   0.3407
 -24.000  -0.7063   0.34448   0.32594   0.0616   1.0000   0.3563
 -23.500  -0.7045   0.33943   0.32078   0.0604   1.0000   0.3726
 -23.000  -0.7098   0.34282   0.32411   0.0595   1.0000   0.3876
 -22.950  -0.7109   0.34404   0.32532   0.0594   1.0000   0.3888
 -22.500  -0.7238   0.36017   0.34147   0.0593   1.0000   0.3957
 -22.000  -0.7346   0.37844   0.35942   0.0590   1.0000   0.3988
 -21.500  -0.6956   0.32300   0.30403   0.0536   1.0000   0.4108
 -21.000  -0.6602   0.29527   0.27617   0.0509   1.0000   0.4339
 -20.500  -0.6441   0.28527   0.26612   0.0492   1.0000   0.4581
 -20.000  -0.6402   0.28566   0.26653   0.0484   1.0000   0.4832
 -19.500  -0.6556   0.30882   0.28985   0.0495   1.0000   0.4965
 -19.350  -0.6605   0.31670   0.29779   0.0500   1.0000   0.4980
 -19.000  -0.6510   0.30131   0.28260   0.0479   1.0000   0.5039
 -18.950  -0.6349   0.28264   0.26385   0.0460   1.0000   0.5087
 -18.500  -0.5897   0.25069   0.23176   0.0422   1.0000   0.5420
 -18.000  -0.5843   0.25338   0.23454   0.0428   1.0000   0.5862
 -17.500  -0.5626   0.24223   0.22309   0.0440   1.0000   0.6884
 -17.000  -0.5289   0.21875   0.19962   0.0398   1.0000   0.7333
 -16.500  -0.5200   0.22572   0.20657   0.0410   1.0000   0.7918
 -16.000  -0.4717   0.19500   0.17581   0.0328   1.0000   0.8382
 -15.500  -0.4551   0.19572   0.17645   0.0318   1.0000   0.8974
 -15.000  -0.4205   0.18700   0.16767   0.0258   1.0000   0.9493
 -14.950  -0.4130   0.18240   0.16312   0.0242   1.0000   0.9527
 -14.500  -0.3494   0.15883   0.13934   0.0099   1.0000   1.0000
 -14.000  -0.3300   0.15277   0.13331   0.0071   1.0000   1.0000
 -13.500  -0.3105   0.14688   0.12745   0.0042   1.0000   1.0000
 -13.000  -0.2912   0.14110   0.12170   0.0015   1.0000   1.0000
 -12.500  -0.2720   0.13532   0.11596  -0.0013   1.0000   1.0000
 -12.000  -0.2530   0.12960   0.11029  -0.0039   1.0000   1.0000
 -11.950  -0.2511   0.12903   0.10973  -0.0042   1.0000   1.0000
 -11.500  -0.2342   0.12395   0.10469  -0.0065   1.0000   1.0000
 -11.000  -0.2158   0.11833   0.09912  -0.0091   1.0000   1.0000
 -10.500  -0.1977   0.11276   0.09359  -0.0116   1.0000   1.0000
 -10.000  -0.1802   0.10721   0.08808  -0.0141   1.0000   1.0000
  -9.950  -0.1784   0.10666   0.08753  -0.0143   1.0000   1.0000
  -9.500  -0.1631   0.10168   0.08258  -0.0165   1.0000   1.0000
  -9.000  -0.1468   0.09615   0.07707  -0.0189   1.0000   1.0000
  -8.500  -0.1313   0.09063   0.07157  -0.0213   1.0000   1.0000
  -8.350  -0.1268   0.08899   0.06992  -0.0221   1.0000   1.0000
  -8.000  -0.1167   0.08518   0.06611  -0.0238   1.0000   1.0000
  -7.500  -0.1029   0.07988   0.06079  -0.0261   1.0000   1.0000
  -7.000  -0.0902   0.07481   0.05568  -0.0285   1.0000   1.0000
  -6.500  -0.0783   0.06994   0.05077  -0.0307   1.0000   1.0000
  -6.000  -0.0678   0.06532   0.04610  -0.0329   1.0000   1.0000
  -5.500  -0.0593   0.06092   0.04166  -0.0349   1.0000   1.0000
  -5.000  -0.0538   0.05678   0.03749  -0.0367   1.0000   1.0000
  -4.500  -0.0525   0.05295   0.03365  -0.0379   1.0000   1.0000
  -4.000  -0.0569   0.04947   0.03019  -0.0381   1.0000   1.0000
  -3.500  -0.0689   0.04638   0.02715  -0.0367   1.0000   1.0000
  -3.000  -0.0883   0.04377   0.02457  -0.0333   1.0000   1.0000
  -2.500  -0.1065   0.04188   0.02252  -0.0283   1.0000   1.0000
  -2.000  -0.1104   0.04085   0.02102  -0.0235   1.0000   1.0000
  -1.500  -0.1001   0.04049   0.02004  -0.0197   1.0000   1.0000
  -1.000  -0.0804   0.04055   0.01950  -0.0169   1.0000   1.0000
  -0.900  -0.0758   0.04060   0.01944  -0.0164   1.0000   1.0000
  -0.500  -0.0558   0.04092   0.01935  -0.0148   1.0000   1.0000
   0.000  -0.0288   0.04156   0.01956  -0.0131   1.0000   1.0000
   0.500  -0.0005   0.04246   0.02012  -0.0117   1.0000   1.0000
   1.000   0.0282   0.04360   0.02100  -0.0107   1.0000   1.0000
   1.500   0.0569   0.04499   0.02222  -0.0101   1.0000   1.0000
   2.000   0.0852   0.04665   0.02377  -0.0097   1.0000   1.0000
   2.500   0.1128   0.04859   0.02565  -0.0095   1.0000   1.0000
   3.000   0.1398   0.05079   0.02773  -0.0096   1.0000   1.0000
   3.500   0.1662   0.05329   0.03016  -0.0100   1.0000   1.0000
   3.550   0.1688   0.05355   0.03042  -0.0101   1.0000   1.0000
   4.000   0.1918   0.05607   0.03293  -0.0106   1.0000   1.0000
   4.500   0.2164   0.05916   0.03605  -0.0115   1.0000   1.0000
   5.000   0.2403   0.06254   0.03952  -0.0126   1.0000   1.0000
   5.500   0.2634   0.06622   0.04331  -0.0139   1.0000   1.0000
   6.000   0.2855   0.07019   0.04745  -0.0154   1.0000   1.0000
   6.150   0.2919   0.07145   0.04876  -0.0158   1.0000   1.0000
   6.500   0.3065   0.07449   0.05194  -0.0170   1.0000   1.0000
   6.550   0.3086   0.07494   0.05241  -0.0172   1.0000   1.0000
   7.000   0.3263   0.07915   0.05681  -0.0190   1.0000   1.0000
   7.500   0.3448   0.08412   0.06201  -0.0211   1.0000   1.0000
   7.600   0.3484   0.08516   0.06310  -0.0215   1.0000   1.0000
   8.000   0.3623   0.08943   0.06757  -0.0234   1.0000   1.0000
   8.500   0.3791   0.09505   0.07345  -0.0259   1.0000   1.0000
   9.000   0.3951   0.10097   0.07965  -0.0286   1.0000   1.0000
   9.500   0.4107   0.10717   0.08613  -0.0315   1.0000   1.0000
  10.000   0.4258   0.11361   0.09283  -0.0346   1.0000   1.0000
  10.050   0.4273   0.11426   0.09351  -0.0349   1.0000   1.0000
  10.500   0.4408   0.12025   0.09974  -0.0379   1.0000   1.0000
  11.000   0.4557   0.12711   0.10684  -0.0413   1.0000   1.0000
  11.500   0.4707   0.13419   0.11411  -0.0448   1.0000   1.0000
  12.000   0.4860   0.14144   0.12153  -0.0484   1.0000   1.0000
  12.500   0.5019   0.14882   0.12904  -0.0520   1.0000   1.0000
  13.000   0.5183   0.15628   0.13660  -0.0556   1.0000   1.0000
  13.500   0.5353   0.16367   0.14407  -0.0591   1.0000   1.0000
  14.000   0.5572   0.17035   0.15086  -0.0639   0.9901   1.0000
  14.500   0.6171   0.19688   0.17755  -0.0778   0.9478   1.0000
  15.000   0.6438   0.20273   0.18355  -0.0827   0.9058   1.0000
  15.500   0.6580   0.20846   0.18921  -0.0849   0.8919   1.0000
  16.000   0.6736   0.21114   0.19198  -0.0865   0.8463   1.0000
  16.500   0.7421   0.26326   0.24422  -0.0994   0.7973   1.0000
  17.000   0.7227   0.23467   0.21557  -0.0937   0.7691   1.0000
  17.050   0.7236   0.23457   0.21548  -0.0937   0.7644   1.0000
  17.500   0.7464   0.24443   0.22544  -0.0965   0.7307   1.0000
  18.000   0.8182   0.31166   0.29299  -0.1088   0.7006   1.0000
  18.050   0.8204   0.31602   0.29719  -0.1093   0.6997   1.0000
  19.000   0.7860   0.27435   0.25618  -0.1015   0.6466   1.0000
  19.500   0.8403   0.32697   0.30874  -0.1079   0.5962   1.0000
  20.000   0.8120   0.29860   0.28028  -0.1034   0.5678   1.0000
  20.500   0.8863   0.36270   0.34465  -0.1093   0.5021   1.0000
  21.000   0.8845   0.36813   0.34985  -0.1104   0.4975   1.0000
  20.550   0.8977   0.38447   0.36626  -0.1113   0.4998   1.0000
  21.000   0.8845   0.36813   0.34985  -0.1104   0.4975   1.0000
  21.500   0.8606   0.34680   0.32850  -0.1082   0.4908   1.0000
  22.000   0.8406   0.33787   0.31965  -0.1063   0.4724   1.0000
  22.500   0.8359   0.34259   0.32451  -0.1057   0.4509   1.0000
  23.000   0.8406   0.35250   0.33458  -0.1057   0.4311   1.0000
  23.500   0.8736   0.37625   0.35842  -0.1091   0.4128   1.0000
  23.600   0.8892   0.38685   0.36901  -0.1109   0.4092   1.0000
  23.650   0.8992   0.39414   0.37630  -0.1122   0.4074   1.0000
  23.900   0.9573   0.45959   0.44200  -0.1205   0.3998   1.0000
  24.150   0.9488   0.45327   0.43570  -0.1202   0.3991   1.0000
  24.200   0.9469   0.45186   0.43430  -0.1201   0.3990   1.0000
  24.500   0.9319   0.44212   0.42462  -0.1189   0.3978   1.0000
  24.300   0.9425   0.44886   0.43132  -0.1198   0.3986   1.0000
  24.400   0.9375   0.44561   0.42809  -0.1194   0.3982   1.0000
  24.500   0.9319   0.44212   0.42462  -0.1189   0.3978   1.0000
  25.000   0.8857   0.41881   0.40157  -0.1136   0.3944   1.0000
  25.100   0.8692   0.41180   0.39465  -0.1112   0.3934   1.0000
  25.150   0.8570   0.40691   0.38985  -0.1094   0.3928   1.0000
  25.200   0.8343   0.39800   0.38110  -0.1057   0.3921   1.0000
  25.500   0.7724   0.36880   0.35235  -0.0964   0.3868   1.0000
  25.600   0.7621   0.36345   0.34708  -0.0951   0.3845   1.0000
  26.000   0.7394   0.35241   0.33629  -0.0924   0.3732   1.0000
  26.100   0.7363   0.35121   0.33513  -0.0921   0.3702   1.0000
  26.250   0.7328   0.35004   0.33403  -0.0918   0.3656   1.0000
  26.500   0.7289   0.34931   0.33341  -0.0915   0.3581   1.0000
  27.000   0.7260   0.35072   0.33500  -0.0915   0.3437   1.0000
  27.500   0.7286   0.35565   0.34010  -0.0921   0.3302   1.0000
  28.000   0.7411   0.36806   0.35265  -0.0937   0.3174   1.0000
  28.500   0.8149   0.43325   0.41770  -0.1042   0.3043   1.0000
  28.550   0.9731   0.55186   0.53528  -0.1307   0.2999   1.0000
  28.650   0.9608   0.54445   0.52795  -0.1291   0.2997   1.0000
  29.000   0.8742   0.49395   0.47802  -0.1159   0.2986   1.0000
  29.500   0.7788   0.42224   0.40697  -0.1021   0.2957   1.0000
  30.000   0.7338   0.38191   0.36701  -0.0973   0.2887   1.0000
  30.500   0.7212   0.37142   0.35673  -0.0971   0.2787   1.0000
  30.550   0.7207   0.37112   0.35645  -0.0972   0.2776   1.0000
  30.750   0.7195   0.37067   0.35608  -0.0976   0.2735   1.0000
  30.850   0.7193   0.37080   0.35624  -0.0978   0.2715   1.0000
  31.000   0.7194   0.37141   0.35691  -0.0981   0.2684   1.0000
  31.050   0.7195   0.37172   0.35723  -0.0982   0.2674   1.0000
  31.500   0.7246   0.37809   0.36376  -0.0995   0.2587   1.0000
  31.550   0.7258   0.37950   0.36518  -0.0997   0.2577   1.0000
  31.600   0.7273   0.38118   0.36688  -0.1000   0.2568   1.0000
  31.700   0.7314   0.38577   0.37149  -0.1005   0.2549   1.0000
  32.200   0.7581   0.41928   0.40495  -0.1052   0.2495   1.0000
  32.500   0.7430   0.40604   0.39186  -0.1043   0.2486   1.0000
  33.000   0.7259   0.39105   0.37738  -0.1042   0.2459   1.0000
  33.050   0.7247   0.39004   0.37639  -0.1043   0.2455   1.0000
  33.500   0.7172   0.38449   0.37100  -0.1052   0.2407   1.0000
  33.650   0.7158   0.38383   0.37040  -0.1056   0.2385   1.0000
  34.000   0.7140   0.38368   0.37039  -0.1067   0.2331   1.0000
  34.500   0.7132   0.38539   0.37229  -0.1082   0.2250   1.0000
  35.000   0.7138   0.38856   0.37566  -0.1098   0.2171   1.0000
  35.150   0.7144   0.38990   0.37706  -0.1103   0.2148   1.0000
  35.250   0.7149   0.39095   0.37815  -0.1106   0.2133   1.0000
  35.500   0.7168   0.39439   0.38169  -0.1115   0.2096   1.0000
  35.650   0.7188   0.39746   0.38482  -0.1120   0.2075   1.0000
  36.000   0.7299   0.41388   0.40136  -0.1140   0.2026   1.0000
  36.050   0.7336   0.41927   0.40676  -0.1145   0.2019   1.0000
  36.750   0.7361   0.43088   0.41849  -0.1177   0.1990   1.0000
  37.200   0.7243   0.41878   0.40660  -0.1183   0.1977   1.0000
  37.500   0.7187   0.41337   0.40133  -0.1191   0.1965   1.0000
  37.550   0.7179   0.41265   0.40064  -0.1192   0.1963   1.0000
  37.600   0.7171   0.41200   0.40001  -0.1194   0.1960   1.0000
  38.000   0.7125   0.40849   0.39684  -0.1208   0.1935   1.0000
  38.500   0.7091   0.40749   0.39606  -0.1227   0.1890   1.0000
  39.000   0.7072   0.40858   0.39737  -0.1248   0.1837   1.0000
  39.500   0.7058   0.41059   0.39959  -0.1268   0.1783   1.0000
  39.550   0.7057   0.41081   0.39984  -0.1270   0.1778   1.0000
  40.000   0.7048   0.41308   0.40230  -0.1288   0.1730   1.0000
  40.500   0.7039   0.41600   0.40543  -0.1308   0.1680   1.0000
  40.650   0.7037   0.41696   0.40646  -0.1314   0.1665   1.0000
  40.700   0.7037   0.41730   0.40682  -0.1316   0.1660   1.0000
  41.300   0.7035   0.42226   0.41204  -0.1339   0.1604   1.0000
  41.400   0.7036   0.42331   0.41313  -0.1343   0.1595   1.0000
  41.450   0.7037   0.42391   0.41376  -0.1345   0.1590   1.0000
  41.550   0.7039   0.42516   0.41505  -0.1349   0.1581   1.0000
  41.650   0.7042   0.42662   0.41655  -0.1353   0.1573   1.0000
  41.750   0.7046   0.42830   0.41828  -0.1357   0.1564   1.0000
  41.950   0.7061   0.43280   0.42303  -0.1365   0.1547   1.0000
  42.300   0.7134   0.44962   0.43998  -0.1386   0.1518   1.0000
  42.450   0.7228   0.46850   0.45890  -0.1405   0.1507   1.0000
  43.650   0.7088   0.46287   0.45362  -0.1450   0.1489   1.0000
  44.000   0.7028   0.45710   0.44800  -0.1461   0.1484   1.0000
  44.200   0.6998   0.45444   0.44542  -0.1468   0.1480   1.0000
  44.850   0.6917   0.44861   0.43987  -0.1494   0.1467   1.0000
  44.900   0.6912   0.44834   0.43962  -0.1496   0.1466   1.0000
  44.950   0.6907   0.44806   0.43936  -0.1498   0.1465   1.0000
